CRYSTAL
# Primitive lattice vectors in Angstrom
PRIMVEC
 11.82045154253427 0.00000000000000 6.82454088004628
 3.94015051417809 11.14442858992098 6.82454088004628
 0.00000000000000 0.00000000000000 13.64908176009256
# Cartesian coordinates in Angstrom.
PRIMCOORD
 127 1
Ca    13.79052679962332     9.75137501618085    23.88589308016198
Ca     4.92518814272261     9.75137501618085    18.76748742012727
Ca     7.88030102835618     9.75137501618085    20.47362264013884
Ca    10.83541391398975     9.75137501618085    22.17975786015041
Ca    10.83541391398975     1.39305357374012    18.76748742012727
Ca     1.97007525708905     1.39305357374012    13.64908176009256
Ca     4.92518814272261     1.39305357374012    15.35521698010413
Ca     7.88030102835618     1.39305357374012    17.06135220011570
Ca    11.82045154253427     4.17916072122037    20.47362264013884
Ca     2.95511288563357     4.17916072122037    15.35521698010413
Ca     5.91022577126714     4.17916072122037    17.06135220011570
Ca     8.86533865690070     4.17916072122037    18.76748742012727
Ca    12.80548917107880     6.96526786870061    22.17975786015041
Ca     3.94015051417809     6.96526786870061    17.06135220011570
Ca     6.89526339981166     6.96526786870061    18.76748742012727
Ca     9.85037628544523     6.96526786870061    20.47362264013884
Ca    13.79052679962332     9.75137501618085    13.64908176009256
Ca     4.92518814272261     9.75137501618085     8.53067610005785
Ca     7.88030102835618     9.75137501618085    10.23681132006942
Ca    10.83541391398975     9.75137501618085    11.94294654008099
Ca    10.83541391398975     1.39305357374012     8.53067610005785
Ca     1.97007525708905     1.39305357374012     3.41227044002314
Ca     4.92518814272261     1.39305357374012     5.11840566003471
Ca     7.88030102835618     1.39305357374012     6.82454088004628
Ca    11.82045154253427     4.17916072122037    10.23681132006942
Ca     2.95511288563357     4.17916072122037     5.11840566003471
Ca     5.91022577126714     4.17916072122037     6.82454088004628
Ca     8.86533865690070     4.17916072122037     8.53067610005785
Ca    12.80548917107880     6.96526786870061    11.94294654008099
Ca     3.94015051417809     6.96526786870061     6.82454088004628
Ca     6.89526339981166     6.96526786870061     8.53067610005785
Ca     9.85037628544523     6.96526786870061    10.23681132006942
Ca    13.79052679962332     9.75137501618085    17.06135220011570
Ca     4.92518814272261     9.75137501618085    11.94294654008099
Ca     7.88030102835618     9.75137501618085    13.64908176009256
Ca    10.83541391398975     9.75137501618085    15.35521698010413
Ca    10.83541391398975     1.39305357374012    11.94294654008099
Ca     1.97007525708905     1.39305357374012     6.82454088004628
Ca     4.92518814272261     1.39305357374012     8.53067610005785
Ca     7.88030102835618     1.39305357374012    10.23681132006942
Ca    11.82045154253427     4.17916072122037    13.64908176009256
Ca     2.95511288563357     4.17916072122037     8.53067610005785
Ca     5.91022577126714     4.17916072122037    10.23681132006942
Ca     8.86533865690070     4.17916072122037    11.94294654008099
Ca    12.80548917107880     6.96526786870061    15.35521698010413
Ca     3.94015051417809     6.96526786870061    10.23681132006942
Ca     6.89526339981166     6.96526786870061    11.94294654008099
Ca     9.85037628544523     6.96526786870061    13.64908176009256
Ca    13.79052679962332     9.75137501618085    20.47362264013884
Ca     4.92518814272261     9.75137501618085    15.35521698010413
Ca     7.88030102835618     9.75137501618085    17.06135220011570
Ca    10.83541391398975     9.75137501618085    18.76748742012727
Ca    10.83541391398975     1.39305357374012    15.35521698010413
Ca     1.97007525708905     1.39305357374012    10.23681132006942
Ca     4.92518814272261     1.39305357374012    11.94294654008099
Ca     7.88030102835618     1.39305357374012    13.64908176009256
Ca    11.82045154253427     4.17916072122037    17.06135220011570
Ca     2.95511288563357     4.17916072122037    11.94294654008099
Ca     5.91022577126714     4.17916072122037    13.64908176009256
Ca     8.86533865690070     4.17916072122037    15.35521698010413
Ca    12.80548917107880     6.96526786870061    18.76748742012727
Ca     3.94015051417809     6.96526786870061    13.64908176009256
Ca     6.89526339981166     6.96526786870061    15.35521698010414
Ca     9.85037628544523     6.96526786870061    17.06135220011570
O     2.95511288563357     0.00000000000000     1.70613522001157
O     5.91022577126714     0.00000000000000     3.41227044002314
O     8.86533865690070     0.00000000000000     5.11840566003471
O    12.80548917107880     2.78610714748024     8.53067610005785
O     3.94015051417809     2.78610714748024     3.41227044002314
O     6.89526339981166     2.78610714748024     5.11840566003471
O     9.85037628544523     2.78610714748024     6.82454088004628
O     1.97007525708905     5.57221429496049     3.41227044002314
O     4.92518814272261     5.57221429496049     5.11840566003471
O     7.88030102835618     5.57221429496049     6.82454088004628
O    10.83541391398975     5.57221429496049     8.53067610005785
O     2.95511288563357     8.35832144244073     5.11840566003471
O     5.91022577126714     8.35832144244073     6.82454088004628
O     8.86533865690070     8.35832144244073     8.53067610005785
O    11.82045154253427     8.35832144244073    10.23681132006942
O     0.00000000000000     0.00000000000000     3.41227044002314
O     2.95511288563357     0.00000000000000     5.11840566003471
O     5.91022577126714     0.00000000000000     6.82454088004628
O     8.86533865690070     0.00000000000000     8.53067610005785
O    12.80548917107880     2.78610714748024    11.94294654008099
O     3.94015051417809     2.78610714748024     6.82454088004628
O     6.89526339981166     2.78610714748024     8.53067610005785
O     9.85037628544523     2.78610714748024    10.23681132006942
O     1.97007525708905     5.57221429496049     6.82454088004628
O     4.92518814272261     5.57221429496049     8.53067610005785
O     7.88030102835618     5.57221429496049    10.23681132006942
O    10.83541391398975     5.57221429496049    11.94294654008099
O     2.95511288563357     8.35832144244073     8.53067610005785
O     5.91022577126714     8.35832144244073    10.23681132006942
O     8.86533865690070     8.35832144244073    11.94294654008099
O    11.82045154253427     8.35832144244073    13.64908176009256
O     0.00000000000000     0.00000000000000     6.82454088004628
O     2.95511288563357     0.00000000000000     8.53067610005785
O     5.91022577126714     0.00000000000000    10.23681132006942
O     8.86533865690070     0.00000000000000    11.94294654008099
O    12.80548917107880     2.78610714748024    15.35521698010413
O     3.94015051417809     2.78610714748024    10.23681132006942
O     6.89526339981166     2.78610714748024    11.94294654008099
O     9.85037628544523     2.78610714748024    13.64908176009256
O     1.97007525708905     5.57221429496049    10.23681132006942
O     4.92518814272261     5.57221429496049    11.94294654008099
O     7.88030102835618     5.57221429496049    13.64908176009256
O    10.83541391398975     5.57221429496049    15.35521698010413
O     2.95511288563357     8.35832144244073    11.94294654008099
O     5.91022577126714     8.35832144244073    13.64908176009256
O     8.86533865690070     8.35832144244073    15.35521698010413
O    11.82045154253427     8.35832144244073    17.06135220011570
O     0.00000000000000     0.00000000000000    10.23681132006942
O     2.95511288563357     0.00000000000000    11.94294654008099
O     5.91022577126714     0.00000000000000    13.64908176009256
O     8.86533865690070     0.00000000000000    15.35521698010413
O    12.80548917107880     2.78610714748024    18.76748742012727
O     3.94015051417809     2.78610714748024    13.64908176009256
O     6.89526339981166     2.78610714748024    15.35521698010414
O     9.85037628544523     2.78610714748024    17.06135220011570
O     1.97007525708905     5.57221429496049    13.64908176009256
O     4.92518814272261     5.57221429496049    15.35521698010413
O     7.88030102835618     5.57221429496049    17.06135220011570
O    10.83541391398975     5.57221429496049    18.76748742012727
O     2.95511288563357     8.35832144244073    15.35521698010413
O     5.91022577126714     8.35832144244073    17.06135220011570
O     8.86533865690070     8.35832144244073    18.76748742012727
O    11.82045154253427     8.35832144244073    20.47362264013884